Version 4.1
SHEET 1 2496 680
WIRE 624 -912 544 -912
WIRE 832 -912 704 -912
WIRE 944 -912 832 -912
WIRE 544 -848 544 -912
WIRE 224 -832 192 -832
WIRE 224 -816 224 -832
WIRE 832 -816 832 -912
WIRE -784 -768 -784 -816
WIRE 192 -736 192 -832
WIRE -176 -720 -496 -720
WIRE -32 -720 -96 -720
WIRE 160 -720 -32 -720
WIRE 544 -720 544 -768
WIRE 288 -704 224 -704
WIRE 384 -704 288 -704
WIRE 160 -688 64 -688
WIRE 384 -688 384 -704
WIRE 672 -688 640 -688
WIRE 672 -672 672 -688
WIRE 944 -656 944 -912
WIRE 192 -624 192 -672
WIRE -272 -608 -304 -608
WIRE -176 -608 -208 -608
WIRE -32 -608 -32 -720
WIRE -32 -608 -96 -608
WIRE 832 -608 832 -736
WIRE 880 -608 832 -608
WIRE -784 -592 -784 -688
WIRE 640 -592 640 -688
WIRE 384 -576 384 -608
WIRE 608 -576 384 -576
WIRE -496 -560 -496 -720
WIRE -304 -560 -304 -608
WIRE 688 -560 672 -560
WIRE 64 -544 64 -688
WIRE 128 -544 64 -544
WIRE 288 -544 288 -704
WIRE 288 -544 208 -544
WIRE 608 -544 560 -544
WIRE 64 -528 64 -544
WIRE 384 -496 384 -576
WIRE 688 -496 688 -560
WIRE 640 -480 640 -528
WIRE 832 -480 832 -512
WIRE 848 -480 832 -480
WIRE 944 -480 944 -560
WIRE 944 -480 928 -480
WIRE 64 -416 64 -448
WIRE 560 -416 560 -544
WIRE 688 -416 688 -432
WIRE 688 -416 560 -416
WIRE -496 -400 -496 -480
WIRE -304 -400 -304 -480
WIRE 560 -352 560 -416
WIRE 624 -352 560 -352
WIRE 944 -352 944 -480
WIRE 944 -352 704 -352
WIRE 1136 -352 944 -352
WIRE 1136 -336 1136 -352
WIRE 944 -320 944 -352
WIRE 1136 -192 1136 -256
FLAG 1136 -192 0
FLAG -784 -816 VCC
FLAG -784 -592 0
FLAG 640 -480 VCC
FLAG -496 -400 0
FLAG 544 -720 0
FLAG 672 -672 0
FLAG 384 -416 0
FLAG 192 -624 VCC
FLAG 224 -816 0
FLAG 64 -416 0
FLAG -304 -400 0
SYMBOL OpAmps\\opamp2 640 -496 M180
WINDOW 3 -92 126 Left 2
SYMATTR Value LMX58_LM2904
SYMATTR InstName U1
SYMBOL voltage -784 -784 R0
WINDOW 123 0 0 Left 0
WINDOW 39 0 0 Left 0
SYMATTR InstName V2
SYMATTR Value 12
SYMBOL res 1120 -352 R0
SYMATTR InstName Rs
SYMATTR Value 100m
SYMBOL voltage 544 -864 R0
WINDOW 123 0 0 Left 0
WINDOW 39 0 0 Left 0
SYMATTR InstName Vbat
SYMATTR Value 10
SYMBOL npn 768 -608 R0
SYMATTR InstName Q1
SYMATTR Value 2N2222
SYMBOL voltage -496 -576 R0
WINDOW 3 -454 90 Left 2
WINDOW 123 0 0 Left 0
WINDOW 39 0 0 Left 0
SYMATTR Value ""
SYMATTR InstName V1
SYMBOL pnp 880 -560 M180
SYMATTR InstName Q2
SYMATTR Value TIP36C
SYMBOL res 816 -832 R0
SYMATTR InstName R1
SYMATTR Value 100
SYMBOL res 608 -336 R270
WINDOW 0 32 56 VTop 2
WINDOW 3 0 56 VBottom 2
SYMATTR InstName R3
SYMATTR Value 9.1k
SYMBOL cap 672 -496 R0
SYMATTR InstName C1
SYMATTR Value 1n
SYMBOL res 784 -576 R90
WINDOW 0 0 56 VBottom 2
WINDOW 3 32 56 VTop 2
SYMATTR InstName R4
SYMATTR Value 1k
SYMBOL res 368 -512 R0
SYMATTR InstName R5
SYMATTR Value 10k
SYMBOL res 368 -704 R0
SYMATTR InstName R6
SYMATTR Value 91k
SYMBOL res 720 -928 R90
WINDOW 0 0 56 VBottom 2
WINDOW 3 32 56 VTop 2
SYMATTR InstName Fusible
SYMATTR Value 0
SYMBOL res 944 -496 R90
WINDOW 0 0 56 VBottom 2
WINDOW 3 32 56 VTop 2
SYMATTR InstName Rdeg
SYMATTR Value 0
SYMBOL OpAmps\\opamp2 192 -640 M180
WINDOW 3 -92 126 Left 2
SYMATTR Value LMX58_LM2904
SYMATTR InstName U2
SYMBOL res -80 -736 R90
WINDOW 0 0 56 VBottom 2
WINDOW 3 32 56 VTop 2
SYMATTR InstName R2
SYMATTR Value 10k
SYMBOL res -80 -624 R90
WINDOW 0 0 56 VBottom 2
WINDOW 3 32 56 VTop 2
SYMATTR InstName R7
SYMATTR Value 10k
SYMBOL res 224 -560 R90
WINDOW 0 0 56 VBottom 2
WINDOW 3 32 56 VTop 2
SYMATTR InstName R8
SYMATTR Value 10k
SYMBOL res 80 -432 R180
WINDOW 0 36 76 Left 2
WINDOW 3 36 40 Left 2
SYMATTR InstName R9
SYMATTR Value 10k
SYMBOL voltage -304 -576 R0
WINDOW 123 0 0 Left 0
WINDOW 39 0 0 Left 0
SYMATTR InstName V3
SYMATTR Value SINE(1 0.1 1k 0 0 0 30)
SYMBOL cap -208 -624 R90
WINDOW 0 0 32 VBottom 2
WINDOW 3 32 32 VTop 2
SYMATTR InstName C2
SYMBOL pnp 784 -224 R0
SYMATTR InstName Q3
TEXT 1248 -144 Left 2 !.inc lmx58_lm2904.lib
TEXT 48 -104 Left 2 !.tran 0 1200u 0
TEXT 48 -64 Left 2 ;.ac dec 1000 1 100Meg
TEXT 1248 -96 Left 2 !.lib CSD17308Q3.lib
TEXT 48 -24 Left 2 ;.dc Vref 0 0.3 10m
TEXT 1240 -40 Left 2 !.MODEL tip35c npn (\n    +IS=7.88586e-11 BF=256.257 NF=0.951481 VAF=25.9112\n    +IKF=6.91656 ISE=6.4e-12 NE=3.4 BR=4.49993\n    +NR=1.08286 VAR=4.40924 IKR=3.69854\n    +ISC=3.9e-13 NC=3.99 RB=20.929 IRB=0.1 RBM=0.135255\n    +RE=0.000998231 RC=0.0563125 XTB=0.1 XTI=1\n    +EG=1.10826 CJE=1e-07 VJE=0.421306 MJE=0.693953\n    +TF=1e-08 XTF=1.35777 VTF=1.00063 ITF=0.9994\n    +CJC=5e-10 VJC=0.400277 MJC=0.409924 XCJC=0.803124\n    +FC=0.720291 CJS=0 VJS=0.75 MJS=0.5\n    +TR=4.99888e-07 PTF=0 KF=0 AF=1)
TEXT 1240 304 Left 2 !..MODEL tip36c pnp(\n+IS=7.88586e-11 BF=256.257 NF=0.951481 VAF=25.9112\n+IKF=6.91657 ISE=6.4e-12 NE=3.4 BR=4.49993\n+NR=1.08286 VAR=4.40924 IKR=3.69854 ISC=3.9e-13\n+NC=3.99 RB=20.929 IRB=0.1 RBM=0.135255\n+RE=0.000998231 RC=0.0563123 XTB=0.1 XTI=1\n+EG=1.10826 CJE=1e-07 VJE=0.4 MJE=0.735975\n+TF=1e-08 XTF=1.35769 VTF=1 ITF=0.99952\n+CJC=5e-10 VJC=0.400257 MJC=0.409987 XCJC=0.80312\n+FC=0.724857 CJS=0 VJS=0.75 MJS=0.5\n+TR=2.03153e-07 PTF=0 KF=0 AF=1)
TEXT 968 -480 Left 2 ;=>Puede que no sea necesaria, solo es para evitar picos de mA de corriente a bajas corrientes, si es 100 molesta a 3A de corriente)
TEXT 1032 -736 Left 2 ;Nota: Convertir en amp AB para que soporte la medición de impedancias
