Version 4.1
SHEET 1 3292 700
WIRE 1072 -1056 784 -1056
WIRE 1168 -1056 1072 -1056
WIRE 1168 -1024 1168 -1056
WIRE 784 -928 784 -1056
WIRE 1168 -896 1168 -944
WIRE -304 -880 -464 -880
WIRE 1792 -880 1792 -928
WIRE 1072 -848 1072 -1056
WIRE -992 -816 -992 -912
WIRE -464 -816 -464 -880
WIRE -304 -816 -304 -880
WIRE 1072 -816 1072 -848
WIRE -1360 -800 -1680 -800
WIRE -1216 -800 -1280 -800
WIRE -1024 -800 -1216 -800
WIRE -896 -784 -960 -784
WIRE -768 -784 -896 -784
WIRE -1024 -768 -1120 -768
WIRE -768 -768 -768 -784
WIRE 1008 -768 960 -768
WIRE 1792 -752 1792 -800
WIRE 1792 -752 1664 -752
WIRE 1664 -736 1664 -752
WIRE 784 -720 784 -848
WIRE 896 -720 784 -720
WIRE -992 -704 -992 -752
WIRE 1792 -704 1792 -752
WIRE -1360 -688 -1504 -688
WIRE -1216 -688 -1216 -800
WIRE -1216 -688 -1280 -688
WIRE 784 -688 784 -720
WIRE -304 -672 -304 -736
WIRE -80 -672 -304 -672
WIRE -464 -656 -464 -736
WIRE 144 -656 -16 -656
WIRE -1680 -640 -1680 -800
WIRE -1504 -640 -1504 -688
WIRE -80 -640 -128 -640
WIRE 960 -640 960 -672
WIRE 1072 -640 1072 -720
WIRE 1072 -640 960 -640
WIRE -1120 -624 -1120 -768
WIRE -1056 -624 -1120 -624
WIRE -896 -624 -896 -784
WIRE -896 -624 -976 -624
WIRE -304 -624 -304 -672
WIRE -1120 -608 -1120 -624
WIRE 1664 -608 1664 -656
WIRE -768 -576 -768 -688
WIRE -128 -560 -128 -640
WIRE 0 -560 -128 -560
WIRE 144 -560 144 -656
WIRE 144 -560 64 -560
WIRE 288 -560 240 -560
WIRE 400 -560 368 -560
WIRE 1072 -560 1072 -640
WIRE 560 -544 464 -544
WIRE 688 -544 560 -544
WIRE 240 -528 240 -560
WIRE 400 -528 352 -528
WIRE -1120 -496 -1120 -528
WIRE -1680 -480 -1680 -560
WIRE -1504 -480 -1504 -560
WIRE 352 -448 352 -528
WIRE 448 -448 352 -448
WIRE 560 -448 560 -544
WIRE 560 -448 512 -448
WIRE 240 -416 240 -448
WIRE 352 -352 352 -448
WIRE 464 -352 352 -352
WIRE 1072 -352 1072 -480
WIRE 1072 -352 544 -352
WIRE 1232 -352 1072 -352
WIRE 352 -256 352 -352
WIRE 352 -128 352 -176
WIRE 784 -112 784 -624
WIRE 1072 -96 1072 -352
WIRE 1072 -96 960 -96
WIRE 960 -64 960 -96
WIRE 688 -16 688 -544
WIRE 784 -16 784 -48
WIRE 784 -16 752 -16
WIRE 880 -16 784 -16
WIRE 896 -16 880 -16
WIRE 1072 -16 1072 -96
WIRE 1008 32 960 32
WIRE 1232 32 1232 -352
WIRE 144 80 144 -560
WIRE 688 80 144 80
WIRE 752 80 752 -16
WIRE 1072 128 1072 80
WIRE 1072 160 1072 128
WIRE 1072 272 1072 240
WIRE -128 352 -128 -560
WIRE -48 352 -128 352
WIRE 1232 352 1232 112
WIRE 1232 352 32 352
WIRE 1232 384 1232 352
WIRE 1232 528 1232 464
FLAG 1232 528 0
FLAG 1792 -928 OP+
FLAG 1792 -704 0
FLAG -48 -624 OP+
FLAG -1680 -480 0
FLAG 1168 -896 0
FLAG -768 -496 0
FLAG -1120 -496 0
FLAG 1072 -848 C1
FLAG 1072 128 C2
FLAG 1072 272 0
FLAG 880 -16 B
FLAG 1664 -608 OP-
FLAG -48 -688 OP-
FLAG -992 -704 OP+
FLAG -992 -912 OP-
FLAG -1504 -480 0
FLAG -304 -544 0
FLAG -464 -656 0
FLAG 432 -512 OP+
FLAG 432 -576 OP-
FLAG 240 -416 0
FLAG 352 -128 0
SYMBOL voltage 1792 -896 R0
WINDOW 123 0 0 Left 0
WINDOW 39 0 0 Left 0
SYMATTR InstName V2
SYMATTR Value 12
SYMBOL res 1216 368 R0
SYMATTR InstName Rs
SYMATTR Value 100m
SYMBOL voltage 1168 -1040 R0
WINDOW 123 0 0 Left 0
WINDOW 39 0 0 Left 0
WINDOW 0 35 41 Left 2
SYMATTR InstName VCC
SYMATTR Value 6
SYMBOL npn 896 -768 R0
SYMATTR InstName Q1
SYMATTR Value 2N2222
SYMBOL voltage -1680 -656 R0
WINDOW 3 -234 52 Left 2
WINDOW 123 0 0 Left 0
WINDOW 39 0 0 Left 0
SYMATTR Value PULSE(0 -1 1m 1n 1n 20m 30m 10)
SYMATTR InstName V1
SYMBOL pnp 1008 -720 M180
SYMATTR InstName Q2
SYMATTR Value TIP36C
SYMBOL res -784 -592 R0
SYMATTR InstName R5
SYMATTR Value 10k
SYMBOL res -784 -784 R0
SYMATTR InstName R6
SYMATTR Value 91k
SYMBOL res -1264 -816 R90
WINDOW 0 0 56 VBottom 2
WINDOW 3 32 56 VTop 2
SYMATTR InstName R2
SYMATTR Value 10k
SYMBOL res -1264 -704 R90
WINDOW 0 0 56 VBottom 2
WINDOW 3 32 56 VTop 2
SYMATTR InstName R7
SYMATTR Value 10k
SYMBOL res -960 -640 R90
WINDOW 0 0 56 VBottom 2
WINDOW 3 32 56 VTop 2
SYMATTR InstName R8
SYMATTR Value 10k
SYMBOL res -1104 -512 R180
WINDOW 0 36 76 Left 2
WINDOW 3 36 40 Left 2
SYMATTR InstName R9
SYMATTR Value 10k
SYMBOL pnp 896 32 M180
SYMATTR InstName Q3
SYMATTR Value 2N2907
SYMBOL npn 1008 -16 R0
SYMATTR InstName Q4
SYMATTR Value TIP35C
SYMBOL voltage 1232 16 R0
WINDOW 123 0 0 Left 0
WINDOW 39 0 0 Left 0
SYMATTR InstName VBAT
SYMATTR Value 4.1
SYMBOL voltage 1072 144 R0
WINDOW 123 0 0 Left 0
WINDOW 39 0 0 Left 0
SYMATTR InstName -VCC
SYMATTR Value -6
SYMBOL voltage 1664 -752 R0
WINDOW 123 0 0 Left 0
WINDOW 39 0 0 Left 0
SYMATTR InstName V4
SYMATTR Value 12
SYMBOL voltage -1504 -656 R0
WINDOW 123 0 0 Left 0
WINDOW 39 0 0 Left 0
WINDOW 3 -129 72 Left 2
SYMATTR Value 0
SYMATTR InstName V5
SYMBOL OpAmps\\opamp2 -992 -720 M180
SYMATTR InstName U2
SYMATTR Value OPAx188
SYMBOL res -320 -640 R0
SYMATTR InstName R4
SYMATTR Value 10k
SYMBOL res -320 -832 R0
SYMATTR InstName R10
SYMATTR Value 91K
SYMBOL voltage -464 -832 R0
WINDOW 3 -234 52 Left 2
WINDOW 123 0 0 Left 0
WINDOW 39 0 0 Left 0
SYMATTR Value PULSE(0 3 1m 1n 1n 20m 30m 10)
SYMATTR InstName V3
SYMBOL diode 768 -112 R0
SYMATTR InstName D2
SYMATTR Value 1N4148
SYMBOL res 768 -944 R0
SYMATTR InstName R3
SYMATTR Value 1k
SYMBOL OpAmps\\opamp2 -48 -592 M180
SYMATTR InstName U1
SYMATTR Value LMX24_LM2902
SYMBOL cap 64 -576 R90
WINDOW 0 0 32 VBottom 2
WINDOW 3 32 32 VTop 2
SYMATTR InstName C1
SYMATTR Value 1n
SYMBOL res 48 336 R90
WINDOW 0 0 56 VBottom 2
WINDOW 3 32 56 VTop 2
SYMATTR InstName R11
SYMATTR Value 9.1k
SYMBOL diode 752 -32 R90
WINDOW 0 0 32 VBottom 2
WINDOW 3 32 32 VTop 2
SYMATTR InstName D3
SYMATTR Value 1N4148
SYMBOL OpAmps\\opamp2 432 -480 M180
WINDOW 3 6 88 Left 2
SYMATTR Value LMX24_LM2902
SYMATTR InstName U3
SYMBOL cap 512 -464 R90
WINDOW 0 0 32 VBottom 2
WINDOW 3 32 32 VTop 2
SYMATTR InstName C2
SYMATTR Value 1n
SYMBOL voltage 240 -544 R0
WINDOW 123 0 0 Left 0
WINDOW 39 0 0 Left 0
SYMATTR InstName V6
SYMATTR Value 3.15
SYMBOL res 336 -272 R0
SYMATTR InstName R13
SYMATTR Value 30k
SYMBOL res 560 -368 R90
WINDOW 0 0 56 VBottom 2
WINDOW 3 32 56 VTop 2
SYMATTR InstName R12
SYMATTR Value 10k
SYMBOL diode 752 64 R90
WINDOW 0 0 32 VBottom 2
WINDOW 3 32 32 VTop 2
SYMATTR InstName D4
SYMATTR Value 1N4148
SYMBOL res 384 -576 R90
WINDOW 0 0 56 VBottom 2
WINDOW 3 32 56 VTop 2
SYMATTR InstName R14
SYMATTR Value 7.5k
SYMBOL diode 768 -688 R0
SYMATTR InstName D1
SYMATTR Value 1N4148
SYMBOL res 1056 -576 R0
SYMATTR InstName R1
SYMATTR Value 0.1
TEXT -1464 -232 Left 2 !.tran 0 5m 0 100
TEXT -1464 -192 Left 2 ;.ac dec 1000 1 100Meg
TEXT -1464 -152 Left 2 ;.dc Vref 0 0.3 10m
TEXT 2552 -928 Left 2 !.MODEL tip35c npn (\n    +IS=7.88586e-11 BF=256.257 NF=0.951481 VAF=25.9112\n    +IKF=6.91656 ISE=6.4e-12 NE=3.4 BR=4.49993\n    +NR=1.08286 VAR=4.40924 IKR=3.69854\n    +ISC=3.9e-13 NC=3.99 RB=20.929 IRB=0.1 RBM=0.135255\n    +RE=0.000998231 RC=0.0563125 XTB=0.1 XTI=1\n    +EG=1.10826 CJE=1e-07 VJE=0.421306 MJE=0.693953\n    +TF=1e-08 XTF=1.35777 VTF=1.00063 ITF=0.9994\n    +CJC=5e-10 VJC=0.400277 MJC=0.409924 XCJC=0.803124\n    +FC=0.720291 CJS=0 VJS=0.75 MJS=0.5\n    +TR=4.99888e-07 PTF=0 KF=0 AF=1)
TEXT 2552 -584 Left 2 !.MODEL tip36c pnp(\n+IS=7.88586e-11 BF=256.257 NF=0.951481 VAF=25.9112\n+IKF=6.91657 ISE=6.4e-12 NE=3.4 BR=4.49993\n+NR=1.08286 VAR=4.40924 IKR=3.69854 ISC=3.9e-13\n+NC=3.99 RB=20.929 IRB=0.1 RBM=0.135255\n+RE=0.000998231 RC=0.0563123 XTB=0.1 XTI=1\n+EG=1.10826 CJE=1e-07 VJE=0.4 MJE=0.735975\n+TF=1e-08 XTF=1.35769 VTF=1 ITF=0.99952\n+CJC=5e-10 VJC=0.400257 MJC=0.409987 XCJC=0.80312\n+FC=0.724857 CJS=0 VJS=0.75 MJS=0.5\n+TR=2.03153e-07 PTF=0 KF=0 AF=1)
TEXT 2560 -992 Left 2 !.inc OPAx188.lib
TEXT 2536 -184 Left 2 !.model D4V1 D(Ron=0 Roff=1Meg Vfwd=0.7 Vrev=4.1)
TEXT 2568 -1064 Left 2 !.inc lmx24_lm2902.lib
