Version 4.1
SHEET 1 2496 700
WIRE 1072 -896 784 -896
WIRE 1168 -896 1072 -896
WIRE 1792 -880 1792 -928
WIRE 1168 -864 1168 -896
WIRE 784 -848 784 -896
WIRE 16 -832 16 -928
WIRE -352 -816 -672 -816
WIRE -208 -816 -272 -816
WIRE -16 -816 -208 -816
WIRE 112 -800 48 -800
WIRE 240 -800 112 -800
WIRE -16 -784 -112 -784
WIRE 240 -784 240 -800
WIRE 1792 -752 1792 -800
WIRE 1792 -752 1664 -752
WIRE 1168 -736 1168 -784
WIRE 1664 -736 1664 -752
WIRE 16 -720 16 -768
WIRE -352 -704 -496 -704
WIRE -208 -704 -208 -816
WIRE -208 -704 -272 -704
WIRE 784 -704 784 -768
WIRE 1792 -704 1792 -752
WIRE 496 -688 496 -784
WIRE 1072 -688 1072 -896
WIRE 240 -672 240 -704
WIRE 464 -672 240 -672
WIRE -672 -656 -672 -816
WIRE -496 -656 -496 -704
WIRE 560 -656 528 -656
WIRE 576 -656 560 -656
WIRE 720 -656 576 -656
WIRE 1072 -656 1072 -688
WIRE -112 -640 -112 -784
WIRE -48 -640 -112 -640
WIRE 112 -640 112 -800
WIRE 112 -640 32 -640
WIRE 464 -640 416 -640
WIRE -112 -624 -112 -640
WIRE 1008 -608 960 -608
WIRE 1664 -608 1664 -656
WIRE 240 -592 240 -672
WIRE 496 -576 496 -624
WIRE 784 -560 784 -608
WIRE 880 -560 784 -560
WIRE 896 -560 880 -560
WIRE -112 -512 -112 -544
WIRE -672 -496 -672 -576
WIRE -496 -496 -496 -576
WIRE 416 -480 416 -640
WIRE 496 -480 416 -480
WIRE 560 -480 560 -656
WIRE 960 -480 960 -512
WIRE 1072 -480 1072 -560
WIRE 1072 -480 960 -480
WIRE 1072 -352 1072 -480
WIRE 1232 -352 1072 -352
WIRE 1232 -336 1232 -352
WIRE 416 -240 416 -480
WIRE 528 -240 416 -240
WIRE 1232 -240 1232 -256
WIRE 1232 -240 608 -240
WIRE 1232 -224 1232 -240
WIRE 1072 -176 1072 -352
WIRE 1072 -176 960 -176
WIRE 960 -144 960 -176
WIRE 784 -96 784 -560
WIRE 880 -96 784 -96
WIRE 896 -96 880 -96
WIRE 1072 -96 1072 -176
WIRE 1232 -80 1232 -144
WIRE 784 -48 784 -96
WIRE 1008 -48 960 -48
WIRE 1072 48 1072 0
WIRE 784 64 784 32
WIRE 1072 80 1072 48
WIRE 1072 192 1072 160
FLAG 1232 -80 0
FLAG 1792 -928 OP+
FLAG 1792 -704 0
FLAG 496 -576 OP+
FLAG -672 -496 0
FLAG 1168 -736 0
FLAG 240 -512 0
FLAG -112 -512 0
FLAG 1072 -688 C1
FLAG 880 -560 B1
FLAG 1072 48 C2
FLAG 1072 192 0
FLAG 1232 -352 out
FLAG 880 -96 B2
FLAG 576 -656 B3
FLAG 784 64 0
FLAG 1664 -608 OP-
FLAG 496 -784 OP-
FLAG 16 -720 OP+
FLAG 16 -928 OP-
FLAG -496 -496 0
SYMBOL voltage 1792 -896 R0
WINDOW 123 0 0 Left 0
WINDOW 39 0 0 Left 0
SYMATTR InstName V2
SYMATTR Value 3
SYMBOL res 1216 -240 R0
SYMATTR InstName Rs
SYMATTR Value 100m
SYMBOL voltage 1168 -880 R0
WINDOW 123 0 0 Left 0
WINDOW 39 0 0 Left 0
WINDOW 0 35 41 Left 2
SYMATTR InstName VCC
SYMATTR Value 6
SYMBOL npn 896 -608 R0
SYMATTR InstName Q1
SYMATTR Value 2N2222
SYMBOL voltage -672 -672 R0
WINDOW 3 -234 52 Left 2
WINDOW 123 0 0 Left 0
WINDOW 39 0 0 Left 0
SYMATTR Value PULSE(0 -1 1m 1n 1n 20m 30m 10)
SYMATTR InstName V1
SYMBOL pnp 1008 -560 M180
SYMATTR InstName Q2
SYMATTR Value TIP36C
SYMBOL res 224 -608 R0
SYMATTR InstName R5
SYMATTR Value 10k
SYMBOL res 224 -800 R0
SYMATTR InstName R6
SYMATTR Value 91k
SYMBOL res -256 -832 R90
WINDOW 0 0 56 VBottom 2
WINDOW 3 32 56 VTop 2
SYMATTR InstName R2
SYMATTR Value 10k
SYMBOL res -256 -720 R90
WINDOW 0 0 56 VBottom 2
WINDOW 3 32 56 VTop 2
SYMATTR InstName R7
SYMATTR Value 10k
SYMBOL res 48 -656 R90
WINDOW 0 0 56 VBottom 2
WINDOW 3 32 56 VTop 2
SYMATTR InstName R8
SYMATTR Value 10k
SYMBOL res -96 -528 R180
WINDOW 0 36 76 Left 2
WINDOW 3 36 40 Left 2
SYMATTR InstName R9
SYMATTR Value 10k
SYMBOL pnp 896 -48 M180
SYMATTR InstName Q3
SYMATTR Value 2N2907
SYMBOL npn 1008 -96 R0
SYMATTR InstName Q4
SYMATTR Value TIP35C
SYMBOL voltage 1232 -352 R0
SYMATTR InstName VBAT
SYMATTR Value 3.7
SYMBOL voltage 1072 64 R0
WINDOW 123 0 0 Left 0
WINDOW 39 0 0 Left 0
SYMATTR InstName -VCC
SYMATTR Value -6
SYMBOL pnp 720 -608 M180
SYMATTR InstName Q5
SYMATTR Value 2N2907
SYMBOL res 768 -864 R0
SYMATTR InstName R1
SYMATTR Value 100
SYMBOL res 768 -64 R0
SYMATTR InstName R3
SYMATTR Value 5k
SYMBOL voltage 1664 -752 R0
WINDOW 123 0 0 Left 0
WINDOW 39 0 0 Left 0
SYMATTR InstName V4
SYMATTR Value 3
SYMBOL OpAmps\\AD8601 496 -592 M180
SYMATTR InstName U4
SYMBOL OpAmps\\AD8601 16 -736 M180
SYMATTR InstName U1
SYMBOL voltage -496 -672 R0
WINDOW 123 0 0 Left 0
WINDOW 39 0 0 Left 0
WINDOW 3 -129 72 Left 2
SYMATTR InstName V5
SYMATTR Value 0
SYMBOL cap 560 -496 R90
WINDOW 0 0 32 VBottom 2
WINDOW 3 32 32 VTop 2
SYMATTR InstName C1
SYMATTR Value 1n
SYMBOL res 624 -256 R90
WINDOW 0 0 56 VBottom 2
WINDOW 3 32 56 VTop 2
SYMATTR InstName R4
SYMATTR Value 9.1k
TEXT 1344 -144 Left 2 !.inc lmx58_lm2904.lib
TEXT 48 -104 Left 2 !.tran 0 5m 0
TEXT 48 -64 Left 2 ;.ac dec 1000 1 100Meg
TEXT 1344 -96 Left 2 !.lib CSD17308Q3.lib
TEXT 48 -24 Left 2 ;.dc Vref 0 0.3 10m
TEXT 1336 -40 Left 2 !.MODEL tip35c npn (\n    +IS=7.88586e-11 BF=256.257 NF=0.951481 VAF=25.9112\n    +IKF=6.91656 ISE=6.4e-12 NE=3.4 BR=4.49993\n    +NR=1.08286 VAR=4.40924 IKR=3.69854\n    +ISC=3.9e-13 NC=3.99 RB=20.929 IRB=0.1 RBM=0.135255\n    +RE=0.000998231 RC=0.0563125 XTB=0.1 XTI=1\n    +EG=1.10826 CJE=1e-07 VJE=0.421306 MJE=0.693953\n    +TF=1e-08 XTF=1.35777 VTF=1.00063 ITF=0.9994\n    +CJC=5e-10 VJC=0.400277 MJC=0.409924 XCJC=0.803124\n    +FC=0.720291 CJS=0 VJS=0.75 MJS=0.5\n    +TR=4.99888e-07 PTF=0 KF=0 AF=1)
TEXT 1336 304 Left 2 !..MODEL tip36c pnp(\n+IS=7.88586e-11 BF=256.257 NF=0.951481 VAF=25.9112\n+IKF=6.91657 ISE=6.4e-12 NE=3.4 BR=4.49993\n+NR=1.08286 VAR=4.40924 IKR=3.69854 ISC=3.9e-13\n+NC=3.99 RB=20.929 IRB=0.1 RBM=0.135255\n+RE=0.000998231 RC=0.0563123 XTB=0.1 XTI=1\n+EG=1.10826 CJE=1e-07 VJE=0.4 MJE=0.735975\n+TF=1e-08 XTF=1.35769 VTF=1 ITF=0.99952\n+CJC=5e-10 VJC=0.400257 MJC=0.409987 XCJC=0.80312\n+FC=0.724857 CJS=0 VJS=0.75 MJS=0.5\n+TR=2.03153e-07 PTF=0 KF=0 AF=1)
