Version 4.1
SHEET 1 4748 1780
WIRE 1280 -1056 1280 -1104
WIRE 1280 -1056 992 -1056
WIRE 992 -928 992 -1056
WIRE -96 -880 -256 -880
WIRE 2304 -880 2160 -880
WIRE 2464 -880 2304 -880
WIRE 2752 -880 2752 -928
WIRE 2752 -880 2464 -880
WIRE 1280 -848 1280 -1056
WIRE -96 -816 -96 -880
WIRE 1280 -816 1280 -848
WIRE 2464 -816 2464 -880
WIRE 1216 -768 1168 -768
WIRE -256 -736 -256 -880
WIRE 2752 -736 2752 -880
WIRE 992 -720 992 -848
WIRE 1104 -720 992 -720
WIRE 2752 -704 2752 -736
WIRE -96 -672 -96 -736
WIRE 128 -672 -96 -672
WIRE 352 -656 192 -656
WIRE 2688 -656 2640 -656
WIRE 128 -640 80 -640
WIRE 1168 -640 1168 -672
WIRE 1280 -640 1280 -720
WIRE 1280 -640 1168 -640
WIRE -96 -624 -96 -672
WIRE 2304 -624 2304 -880
WIRE 2464 -608 2464 -736
WIRE 2576 -608 2464 -608
WIRE 80 -560 80 -640
WIRE 208 -560 80 -560
WIRE 352 -560 352 -656
WIRE 352 -560 272 -560
WIRE 496 -560 448 -560
WIRE 608 -560 576 -560
WIRE 992 -560 992 -720
WIRE 1280 -560 1280 -640
WIRE 768 -544 672 -544
WIRE 448 -528 448 -560
WIRE 608 -528 560 -528
WIRE 2640 -528 2640 -560
WIRE 2752 -528 2752 -608
WIRE 2752 -528 2640 -528
WIRE -256 -512 -256 -656
WIRE -96 -512 -96 -544
WIRE -96 -512 -256 -512
WIRE -96 -448 -96 -512
WIRE 560 -448 560 -528
WIRE 656 -448 560 -448
WIRE 768 -448 768 -544
WIRE 768 -448 720 -448
WIRE 2752 -448 2752 -528
WIRE 2464 -432 2464 -608
WIRE 448 -416 448 -448
WIRE 560 -352 560 -448
WIRE 624 -352 560 -352
WIRE 848 -352 704 -352
WIRE 1280 -352 1280 -480
WIRE 1280 -352 848 -352
WIRE 1440 -352 1280 -352
WIRE 560 -256 560 -352
WIRE 2160 -256 2160 -880
WIRE 2304 -240 2304 -560
WIRE 2464 -240 2464 -368
WIRE 2464 -240 2304 -240
WIRE 2752 -240 2752 -368
WIRE 2864 -240 2752 -240
WIRE 992 -224 992 -496
WIRE 560 -128 560 -176
WIRE 2464 -128 2464 -240
WIRE 2752 -128 2752 -240
WIRE 1280 -96 1280 -352
WIRE 1280 -96 1168 -96
WIRE 1168 -64 1168 -96
WIRE 768 -16 768 -448
WIRE 848 -16 768 -16
WIRE 992 -16 992 -160
WIRE 992 -16 912 -16
WIRE 1088 -16 992 -16
WIRE 1104 -16 1088 -16
WIRE 1280 -16 1280 -96
WIRE 2752 16 2752 -48
WIRE 2752 16 2640 16
WIRE 1216 32 1168 32
WIRE 1440 32 1440 -352
WIRE 2640 48 2640 16
WIRE 2304 64 2304 -240
WIRE 352 80 352 -560
WIRE 640 80 352 80
WIRE 992 80 992 -16
WIRE 992 80 704 80
WIRE 2464 96 2464 -64
WIRE 2576 96 2464 96
WIRE 2752 96 2752 16
WIRE 2688 144 2640 144
WIRE 2464 160 2464 96
WIRE 1280 208 1280 80
WIRE 2160 336 2160 -176
WIRE 2304 336 2304 128
WIRE 2304 336 2160 336
WIRE 2464 336 2464 240
WIRE 2464 336 2304 336
WIRE 2752 336 2752 192
WIRE 2752 336 2464 336
WIRE 80 352 80 -560
WIRE 160 352 80 352
WIRE 1440 352 1440 112
WIRE 1440 352 240 352
WIRE 2752 384 2752 336
WIRE 1440 416 1440 352
WIRE 2752 464 2752 384
WIRE 1440 560 1440 496
FLAG 160 -624 VCC+
FLAG 1280 -848 C1
FLAG 1088 -16 B
FLAG 160 -688 VCC-
FLAG 640 -512 VCC+
FLAG 640 -576 VCC-
FLAG 848 -352 in2
FLAG 1280 -1104 VCC+
FLAG 1280 208 VCC-
FLAG 1440 560 VGND
FLAG 2752 -736 C1
FLAG 2752 -928 VCC+
FLAG 2752 384 VCC-
FLAG 2864 -240 VGND
FLAG 2752 464 0
FLAG 448 -416 VGND
FLAG 560 -128 VGND
FLAG -96 -448 VGND
SYMBOL res 1424 400 R0
SYMATTR InstName Rs
SYMATTR Value 100m
SYMBOL npn 1104 -768 R0
SYMATTR InstName Q1
SYMATTR Value 2N2222
SYMBOL pnp 1216 -720 M180
SYMATTR InstName Q2
SYMATTR Value TIP36C
SYMBOL pnp 1104 32 M180
SYMATTR InstName Q3
SYMATTR Value 2N2907
SYMBOL npn 1216 -16 R0
SYMATTR InstName Q4
SYMATTR Value TIP35C
SYMBOL voltage 1440 16 R0
WINDOW 123 0 0 Left 0
WINDOW 39 0 0 Left 0
SYMATTR InstName VBAT
SYMATTR Value 4.0
SYMBOL res -112 -640 R0
SYMATTR InstName R4
SYMATTR Value 10k
SYMBOL res -112 -832 R0
SYMATTR InstName R10
SYMATTR Value 91K
SYMBOL voltage -256 -752 R0
WINDOW 3 -238 104 Left 2
WINDOW 123 0 0 Left 0
WINDOW 39 0 0 Left 0
SYMATTR Value PULSE(0 3 1m 1n 1n 9m 10m 30)
SYMATTR InstName V3
SYMBOL diode 976 -224 R0
SYMATTR InstName D2
SYMATTR Value 1N4148
SYMBOL res 976 -944 R0
SYMATTR InstName R3
SYMATTR Value 1k
SYMBOL OpAmps\\opamp2 160 -592 M180
SYMATTR InstName U1
SYMATTR Value LMX24_LM2902
SYMBOL cap 272 -576 R90
WINDOW 0 0 32 VBottom 2
WINDOW 3 32 32 VTop 2
SYMATTR InstName C1
SYMATTR Value 1n
SYMBOL res 256 336 R90
WINDOW 0 0 56 VBottom 2
WINDOW 3 32 56 VTop 2
SYMATTR InstName R11
SYMATTR Value 9.1k
SYMBOL diode 912 -32 R90
WINDOW 0 0 32 VBottom 2
WINDOW 3 32 32 VTop 2
SYMATTR InstName D3
SYMATTR Value 1N4148
SYMBOL OpAmps\\opamp2 640 -480 M180
WINDOW 3 22 101 Left 2
SYMATTR Value LMX24_LM2902
SYMATTR InstName U3
SYMBOL cap 720 -464 R90
WINDOW 0 0 32 VBottom 2
WINDOW 3 32 32 VTop 2
SYMATTR InstName C2
SYMATTR Value 1n
SYMBOL voltage 448 -544 R0
WINDOW 123 0 0 Left 0
WINDOW 39 0 0 Left 0
SYMATTR InstName V6
SYMATTR Value 6
SYMBOL res 544 -272 R0
SYMATTR InstName R13
SYMATTR Value 30k
SYMBOL res 720 -368 R90
WINDOW 0 0 56 VBottom 2
WINDOW 3 32 56 VTop 2
SYMATTR InstName R12
SYMATTR Value 30k
SYMBOL res 592 -576 R90
WINDOW 0 -34 53 VBottom 2
WINDOW 3 -31 51 VTop 2
SYMATTR InstName R14
SYMATTR Value 7.5k
SYMBOL diode 976 -560 R0
SYMATTR InstName D1
SYMATTR Value 1N4148
SYMBOL res 1264 -576 R0
SYMATTR InstName R1
SYMATTR Value 0.1
SYMBOL diode 704 64 R90
WINDOW 0 0 32 VBottom 2
WINDOW 3 32 32 VTop 2
SYMATTR InstName D4
SYMATTR Value 1N4148
SYMBOL voltage 2160 -272 R0
WINDOW 123 0 0 Left 0
WINDOW 39 0 0 Left 0
SYMATTR InstName V8
SYMATTR Value 24V
SYMBOL npn 2576 -656 R0
SYMATTR InstName Q8
SYMATTR Value 2N2222
SYMBOL pnp 2688 -608 M180
SYMATTR InstName Q9
SYMATTR Value TIP36C
SYMBOL pnp 2576 144 M180
SYMATTR InstName Q10
SYMATTR Value 2N2907
SYMBOL npn 2688 96 R0
SYMATTR InstName Q11
SYMATTR Value TIP35C
SYMBOL diode 2448 -128 R0
SYMATTR InstName D5
SYMATTR Value 1N4148
SYMBOL res 2448 -832 R0
SYMATTR InstName R15
SYMATTR Value 1K
SYMBOL diode 2448 -432 R0
SYMATTR InstName D7
SYMATTR Value 1N4148
SYMBOL res 2736 -464 R0
SYMATTR InstName R16
SYMATTR Value 10
SYMBOL res 2448 144 R0
SYMATTR InstName R17
SYMATTR Value 1K
SYMBOL res 2736 -144 R0
SYMATTR InstName R20
SYMATTR Value 10
SYMBOL cap 2288 -624 R0
SYMATTR InstName C3
SYMATTR Value 220µ
SYMBOL cap 2288 64 R0
SYMATTR InstName C4
SYMATTR Value 220µ
TEXT 3736 400 Left 2 !.tran 0 5m 0 100
TEXT 3736 440 Left 2 ;.ac dec 1000 0.01 100Meg
TEXT 3736 480 Left 2 ;.dc Vref 0 0.3 10m
TEXT 3744 -504 Left 2 !.MODEL tip35c npn (\n    +IS=7.88586e-11 BF=256.257 NF=0.951481 VAF=25.9112\n    +IKF=6.91656 ISE=6.4e-12 NE=3.4 BR=4.49993\n    +NR=1.08286 VAR=4.40924 IKR=3.69854\n    +ISC=3.9e-13 NC=3.99 RB=20.929 IRB=0.1 RBM=0.135255\n    +RE=0.000998231 RC=0.0563125 XTB=0.1 XTI=1\n    +EG=1.10826 CJE=1e-07 VJE=0.421306 MJE=0.693953\n    +TF=1e-08 XTF=1.35777 VTF=1.00063 ITF=0.9994\n    +CJC=5e-10 VJC=0.400277 MJC=0.409924 XCJC=0.803124\n    +FC=0.720291 CJS=0 VJS=0.75 MJS=0.5\n    +TR=4.99888e-07 PTF=0 KF=0 AF=1)
TEXT 3744 -160 Left 2 !.MODEL tip36c pnp(\n+IS=7.88586e-11 BF=256.257 NF=0.951481 VAF=25.9112\n+IKF=6.91657 ISE=6.4e-12 NE=3.4 BR=4.49993\n+NR=1.08286 VAR=4.40924 IKR=3.69854 ISC=3.9e-13\n+NC=3.99 RB=20.929 IRB=0.1 RBM=0.135255\n+RE=0.000998231 RC=0.0563123 XTB=0.1 XTI=1\n+EG=1.10826 CJE=1e-07 VJE=0.4 MJE=0.735975\n+TF=1e-08 XTF=1.35769 VTF=1 ITF=0.99952\n+CJC=5e-10 VJC=0.400257 MJC=0.409987 XCJC=0.80312\n+FC=0.724857 CJS=0 VJS=0.75 MJS=0.5\n+TR=2.03153e-07 PTF=0 KF=0 AF=1)
TEXT 3752 -568 Left 2 !.inc OPAx188.lib
TEXT 3728 240 Left 2 !.model D4V1 D(Ron=0 Roff=1Meg Vfwd=0.7 Vrev=4.1)
TEXT 3760 -640 Left 2 !.inc lmx24_lm2902.lib
TEXT 2376 -1208 Left 2 ;FUENTE PARTIDA
TEXT 360 -1208 Left 2 ;MÓDULO CARGA/DESCARGA/ACIR
RECTANGLE Normal 3056 672 1872 -1248 2
RECTANGLE Normal -656 672 1712 -1248 2
